%Mem=2500MB
%nproc=4
%chk=./F.chk
# AM1 Opt Freq=(scale=0.9532)

Title Card Required

0 1
 C                 -5.32977811   -1.00682553   -0.47003756
 C                 -3.99104889   -0.87899184   -0.63391529
 C                 -3.33704527    0.50764399   -0.57769427
 C                 -4.07670862    1.59113054   -0.23817509
 C                 -5.59159060    1.44358599   -0.00177791
 C                 -6.18225604    0.23049717   -0.13272098
 H                 -5.79280910   -1.96646275   -0.56801049
 N                 -3.15760155   -2.06454023   -0.84682635
 N                 -1.91462392    0.66472861   -0.91099142
 H                 -3.61022783    2.54918818   -0.14111210
 C                 -6.43540007    2.67429479    0.37893380
 H                 -7.43140291    2.55265806    0.00733881
 H                 -6.46167720    2.77309638    1.44403838
 H                 -5.99940330    3.55223281   -0.05005530
 C                 -7.70361511    0.08913474    0.05984915
 H                 -8.04512367    0.82680125    0.75563649
 H                 -8.19658089    0.22948467   -0.87939876
 H                 -7.92618895   -0.88710105    0.43710844
 C                 -1.17022528   -0.59476073   -0.71778993
 C                 -1.87307022   -1.95982624   -0.73285630
 C                 -1.32599604    1.71184854   -0.06366794
 C                 -1.01341993   -3.21713271   -0.59671706
 N                  0.38298489   -3.09990600   -0.15011771
 C                  0.94930625   -1.76405229   -0.43873119
 H                  0.93213450   -3.79543662   -0.61344467
 N                  0.11431486   -0.54757803   -0.56479414
 O                 -1.50295429   -4.34844355   -0.84982266
 H                 -0.29545473    1.84132307   -0.32080788
 O                  2.19547364   -1.65564447   -0.57615439
 H                 -1.40377851    1.42460298    0.96411602
 H                 -1.85029786    2.63180891   -0.21755270

