%Mem=2500MB
%nproc=4
%chk=./F_P.chk
# AM1 Opt Freq=(scale=0.9532)

Title Card Required

-1 1
 C                 -4.95976440   -0.57299621   -1.67488460
 C                 -3.68124303   -0.28909731   -1.32693590
 C                 -3.39308560    0.59319962   -0.10505794
 C                 -4.41441713    1.13153677    0.60213556
 C                 -5.86937140    0.82456230    0.20220405
 C                 -6.12549170    0.01889180   -0.85924535
 H                 -5.15960193   -1.20605415   -2.51509964
 N                 -2.55848662   -0.81472228   -2.10797140
 N                 -2.00230346    0.83718137    0.29269307
 H                 -4.20976709    1.76696203    1.43952985
 C                 -7.03224419    1.43094920    1.00797872
 H                 -7.87678310    1.56690111    0.36481346
 H                 -7.29619602    0.77094962    1.80833265
 H                 -6.73119727    2.37600086    1.41027777
 C                 -7.58138054   -0.30152258   -1.24832706
 H                 -8.19743876   -0.28146200   -0.37387838
 H                 -7.93139052    0.42768154   -1.94917966
 H                 -7.62658436   -1.27301623   -1.69253645
 C                 -1.19778830   -0.33463113   -0.09008063
 C                 -1.38083952   -1.02622357   -1.24771077
 C                 -1.94680829    1.03317472    1.75101559
 C                 -0.27148881   -2.04039787   -1.68897395
 N                  0.98584465   -2.23147779   -0.89935782
 C                  1.09920916   -1.12824481    0.06262501
 H                  1.75886300   -2.24238522   -1.53320175
 N                 -0.14172241   -0.84662871    0.74527450
 O                 -0.42472058   -2.68787713   -2.75491409
 H                 -0.93280913    1.20216864    2.04904670
 O                  2.16624618   -0.49841222    0.27563608
 H                 -2.32454701    0.16111141    2.24439542
 H                 -2.54220305    1.88082759    2.02059335
 H                 -2.82039547   -1.68274133   -2.53255381

