%Mem=2500MB
%nproc=4
%chk=./FH_P.chk
# AM1 Opt Freq=(scale=0.9532)

Title Card Required

0 1
 C                 -5.33514795   -1.03760010   -0.49476513
 C                 -4.02078634   -0.89766122   -0.79238640
 C                 -3.36082380    0.47485929   -0.73630439
 C                 -4.08669194    1.56796240   -0.39813582
 C                 -5.58249469    1.42037911   -0.06144729
 C                 -6.16754381    0.19821261   -0.10491531
 H                 -5.79362964   -2.00371600   -0.53102266
 N                 -3.21484845   -2.05507508   -1.17542247
 N                 -1.93664592    0.59437895   -1.05101692
 H                 -3.62183551    2.53112257   -0.36450557
 C                 -6.41204089    2.65919942    0.32426937
 H                 -7.42853490    2.51588435    0.02244042
 H                 -6.37116488    2.79993644    1.38418552
 H                 -6.01279590    3.52251626   -0.16581988
 C                 -7.66192428    0.04588550    0.23453055
 H                 -7.94533235    0.79692164    0.94200817
 H                 -8.24334007    0.15789290   -0.65671017
 H                 -7.83540372   -0.92299570    0.65414239
 C                 -1.22045987   -0.63976687   -0.66458000
 C                 -1.80937939   -1.87262482   -0.75524653
 C                 -1.37856953    1.72915377   -0.30152585
 C                 -0.99606758   -3.13043702   -0.44069948
 N                  0.37943190   -3.03730510    0.04561800
 C                  0.96479778   -1.72140259   -0.26129142
 H                  0.91594670   -3.75820551   -0.39307833
 N                  0.16718588   -0.47859013   -0.18254945
 O                 -1.51620428   -4.26314119   -0.61393240
 H                 -0.33731237    1.82809919   -0.52712135
 O                  2.18210035   -1.64966311   -0.57209434
 H                 -1.50158127    1.55873883    0.74762945
 H                 -1.89059609    2.62661585   -0.57953776
 H                  0.60085144    0.22525228   -0.74516836
 H                 -3.58391843   -2.87269067   -0.73350381

