%Mem=2500MB
%nproc=4
%chk=./NAD.chk
# AM1 Opt Freq=(scale=0.9532)

Title Card Required

1 1
 C                 -1.15361584    0.37225015    0.51037565
 C                 -0.06184929   -0.25249109    0.00497992
 C                  1.10012047    0.58474685   -0.54393107
 C                  1.00440175    1.92959433   -0.50908233
 C                 -0.26188266    2.58043101    0.07763787
 N                 -1.23190769    1.84651732    0.53612976
 H                 -1.96625450   -0.20841660    0.89423047
 H                  1.80013975    2.53803744   -0.88524456
 H                 -0.34407968    3.64683101    0.10821089
 C                  0.01114546   -1.79059094   -0.01783686
 O                 -0.94507883   -2.47264870    0.43382991
 N                  1.19783571   -2.46203138   -0.56723106
 H                  0.93156083   -3.34374363   -0.95669375
 H                  1.60328767   -1.89109167   -1.28111940
 C                 -2.42851086    2.49607686    1.09030774
 H                 -2.29191156    2.66038568    2.13875576
 H                 -2.58473637    3.43403650    0.59967009
 H                 -3.27988152    1.86661706    0.93587863
 H                  1.97055329    0.11066960   -0.94704080

