%Mem=2500MB
%nproc=4
%chk=./NADH.chk
# AM1 Opt Freq=(scale=0.9532)

Title Card Required

0 1
 C                 -1.23947700    0.40157813    0.21851673
 C                 -0.09866404   -0.23043599   -0.15045718
 C                  1.03617047    0.55167542   -0.82282939
 C                  1.01864600    1.99785573   -0.31303805
 C                 -0.14855357    2.57724929    0.05976968
 N                 -1.42989913    1.84720041   -0.01435160
 H                  1.97506007    0.09846759   -0.58202035
 H                 -2.02055781   -0.16009455    0.68685056
 H                  1.93185687    2.55209936   -0.25171985
 H                 -0.14164985    3.58708756    0.41343481
 C                  0.05839843   -1.74075191    0.10620837
 O                 -0.87118874   -2.38528788    0.65758085
 N                  1.29421900   -2.42950238   -0.29287848
 H                  1.08686206   -3.38078765   -0.52104383
 H                  1.68716462   -1.97325719   -1.09127316
 C                 -2.33373283    2.37568803    1.01748438
 H                 -1.89777373    2.22756401    1.98335131
 H                 -2.48989362    3.42140841    0.85322023
 H                 -3.27142371    1.86277315    0.96694587
 H                  0.89883272    0.54311788   -1.88394442

 
