%chk=TS_state.chk
%mem=10GB
%nprocshared=8
# opt=(calcAll,ts) am1=(Input,Print) scrf int=grid=ultrafine

transition

0 1
 N                  3.77952600    0.83035100    0.39443700
 C                  4.59294300   -0.18353100   -0.11730700
 O                  5.82514900   -0.21952300    0.13724700
 N                  4.07177000   -1.20440100   -0.94483000
 C                  2.72239200   -1.26077400   -1.28712700
 O                  2.31438600   -2.22420500   -1.97621300
 C                  1.85963400   -0.16780100   -0.79819600
 N                  0.55105000   -0.15668200   -1.19350100
 C                 -0.19693500    0.96678200   -0.78234000
 C                 -1.51318100    1.11968200   -1.27783500
 C                 -2.26948000    2.24339500   -0.97830400
 C                 -3.64130400    2.38634300   -1.51945100
 C                 -1.72365900    3.25223000   -0.15489200
 C                 -2.52033000    4.46169200    0.15818200
 C                 -0.43981300    3.11644200    0.36114400
 C                  0.34277400    1.97362700    0.07842200
 N                  1.63116200    1.81498200    0.61575700
 C                  2.46852000    0.82508300    0.08629800
 C                  2.11846100    2.77979000    1.57436300
 H                 -0.03675600   -1.19287500   -0.72114500
 H                  4.68554400   -1.91977500   -1.26952900
 H                 -1.94181300    0.32025300   -1.91199700
 H                 -3.72111800    3.32280200   -2.12784800
 H                 -4.38175700    2.45417200   -0.68241700
 H                 -3.91756400    1.51860100   -2.16708800
 H                 -1.96581100    5.15727500    0.83436700
 H                 -3.48044500    4.17086500    0.65578900
 H                 -2.77329400    5.00869900   -0.78572800
 H                 -0.03971900    3.92590700    0.99441900
 H                  2.98958800    2.36808600    2.14820200
 H                  1.30261900    3.01324800    2.31114700
 H                  2.43432500    3.72299400    1.05324400
 C                 -2.08960300   -1.26893700    3.72211400
 N                 -1.57816500   -1.65774300    2.42745800
 C                 -2.40470400   -1.73943800    1.33136900
 C                 -1.92815000   -2.11534300    0.09097700
 C                 -2.82045700   -2.25539100   -1.08470100
 O                 -2.41971100   -1.97489000   -2.24338800
 N                 -4.09682100   -2.70486900   -0.89817900
 C                 -0.51295400   -2.35388700   -0.11027500
 C                  0.27377400   -2.43372300    1.09990600
 C                 -0.25301100   -2.05666800    2.30554900
 H                 -3.09931400   -0.79288200    3.61154000
 H                 -1.38492900   -0.53306500    4.19424800
 H                 -2.17591700   -2.17363400    4.38256800
 H                 -3.46999100   -1.48508500    1.50798200
 H                 -0.23071200   -3.02776700   -0.94929400
 H                  1.31509100   -2.78011400    1.03366700
 H                  0.33453400   -2.06617700    3.24393300
 H                 -4.41004400   -3.01308300   -0.01170800
 H                 -4.69026800   -2.83840200   -1.68089400

 Method=8 CoreType=1 PeptideFC=0.0114505045 RIJScale=0.5291772086
****
H
PQN=1
NValence=1
F0ss=0.4721553327
ZetaOverlap=1.1880780000
U=-0.3909862986
Beta=-0.227720491774
CoreKO=1.04651630294
KON=0,0,0,1.0589197790
KON=1,0,1,1.0589197790
KON=0,1,1,1.0589197790
KON=2,1,1,1.0589197790
EISol=-0.4188110042
EHeat=0.0830298228
Alpha=1.54702907662
GCore=0.0085277107,1.4001425905,2.2676713595
GCore=0.0003534810,1.39565268245,3.43874820958
GCore=-0.0012733648,0.55637744433,3.9684248791
****
C
PQN=2,2
NValence=4
F0ss=0.4494442496
F0sp=0.4215147623
F0pp=0.3768030831
F2pp=0.1898715146
G1sp=0.2679025821
ZetaOverlap=1.8086650000,1.6851160000
U=-1.9120180828,-1.4557965594
Beta=-0.5775444233,-0.2836784428
DDN=0,1,0.8236736000
DDN=1,1,0.722789798641
CoreKO=1.08831789345
KON=0,0,0,1.1124284736
KON=1,0,1,0.822613863966
KON=0,1,1,1.1124284736
KON=2,1,1,0.7783928119
EISol=-4.4398989268
EHeat=0.26980193087
Alpha=1.4014062429
DipHyp=1.62785451239
GCore=0.0007885612,1.4001425905,3.0235618126
GCore=0.0031892455,1.40923923524,3.4959933458
GCore=-0.0013931594,1.4001425905,3.8739385724
GCore=-0.0000875022,1.39235875365,5.0077742521
****
O
PQN=2,2
NValence=6
F0ss=0.57078004245
F0sp=0.5321302318
F0pp=0.489328634312
F2pp=0.2358081713
G1sp=0.4343770262
ZetaOverlap=3.12474687638,2.5240390000
U=-3.38055844865,-2.8760896690
Beta=-1.0757546603,-1.0757546603
DDN=0,1,0.4988896000
DDN=1,1,0.483912805849
CoreKO=0.8822957477
KON=0,0,0,0.889615858558
KON=1,0,1,0.5019543089
KON=0,1,1,0.8822957477
KON=2,1,1,0.547958597429
EISol=-11.6164441184
EHeat=0.0949133088
Alpha=2.3576807890
DipHyp=0.9977217969
GCore=0.0195117322,1.38013081391,1.6023328031
GCore=0.0056550009,1.9601996266,2.7307884326
****
N
PQN=2,2
NValence=5
F0ss=0.4994233321
F0sp=0.4652464595
F0pp=0.4429518688
F2pp=0.2128398429
G1sp=0.3461786452
ZetaOverlap=2.3154100000,2.1579400000
U=-2.6408065231,-2.1008700363
Beta=-0.7459785987,-0.614353575298
DDN=0,1,0.648490184045
DDN=1,1,0.5675528000
CoreKO=1.0011038171
KON=0,0,0,1.0011038171
KON=1,0,1,0.6393175158
KON=0,1,1,0.987563507425
KON=2,1,1,0.6342362236
EISol=-7.4383480104
EHeat=0.1800769640
Alpha=1.5596365784
DipHyp=1.2865753779
GCore=0.0017535850,1.4001425905,2.8345891993
GCore=0.0020106747,1.4001425905,3.9684248791
GCore=-0.0004032044,0.5600570362,4.5353427189
****
